[General]
network = LoRaNetworkTest
rng-class = "cMersenneTwister"

# network features
**.numberOfGateways = 1
**.loRaGW[0].numUdpApps = 1
**.loRaGW[0].packetForwarder.localPort = 2000
**.loRaGW[0].packetForwarder.destPort = 1000
**.loRaGW[0].packetForwarder.destAddresses = "networkServer"
**.loRaGW[0].packetForwarder.indexNumber = 0

**.loRaGW[1].numUdpApps = 1
**.loRaGW[1].packetForwarder.localPort = 2000
**.loRaGW[1].packetForwarder.destPort = 1000
**.loRaGW[1].packetForwarder.destAddresses = "networkServer"
**.loRaGW[1].packetForwarder.indexNumber = 1

**.networkServer.numUdpApps = 1
**.networkServer.**.evaluateADRinServer = false
**.networkServer.udpApp[0].typename = "NetworkServerApp"
**.networkServer.udpApp[0].destAddresses = "loRaGW[0]"
**.networkServer.udpApp[0].destPort = 2000
**.networkServer.udpApp[0].localPort = 1000
**.networkServer.udpApp[0].adrMethod = ${"avg"}

**.numberOfNodes = 3
**.numberOfPacketsToSend = 0 #0 means infinite number of packets
sim-time-limit = 7d
warmup-period = 1d
simtime-resolution = -11

**.loRaNodes[0].**.timeToReceive = 40s
**.loRaNodes[1].**.timeToReceive = 30s
**.loRaNodes[2].**.timeToReceive = 20s
**.loRaNodes[0].**.timeToFirstPacket = 10s
**.loRaNodes[0].**.timeToSendGateway = 50s #Toplananları repeater nodeın gatewaye atma zamanı
**.loRaNodes[*].**.periodForSending = 120s

**.alohaChannelModel = false

#nodes features
**.loRaNodes[*].**.initFromDisplayString = false
**.loRaNodes[*].**.evaluateADRinNode = false
**.loRaNodes[*].**initialLoRaSF = 9
**.loRaNodes[*].**initialLoRaBW = 125 kHz
**.loRaNodes[*].**initialLoRaCR = 4
**.loRaNodes[*].**initialLoRaTP = (2dBm + 3dBm*2)

# deployment of nodes in a circle with radius=maxGatewayDistance and gateway at gatewayX,gatewayY
#**.loRaNodes[*].deploymentType = "circle"
#**.loRaNodes[*].maxGatewayDistance = 120.0
#**.loRaNodes[*].gatewayX = 240
#**.loRaNodes[*].gatewayY = 240

# random deployment of nodes in a square square area
**.loRaNodes[0].**.initialX = 280m
**.loRaNodes[0].**.initialY = 310m

**.loRaNodes[1].**.initialX = 350m
**.loRaNodes[1].**.initialY = 358m

**.loRaNodes[2].**.initialX = 310m
**.loRaNodes[2].**.initialY = 358m
#gateway features
**.LoRaGWNic.radio.iAmGateway = true
**.loRaGW[*].**.initFromDisplayString = false
**.loRaGW[0].**.initialX = 260m#uniform(0m, 50m)
**.loRaGW[0].**.initialY = 260m

#power consumption features
**.loRaNodes[*].LoRaNic.radio.energyConsumerType = "LoRaEnergyConsumer"
**.loRaNodes[*].**.energySourceModule = "IdealEpEnergyStorage"
**.loRaNodes[*].LoRaNic.radio.energyConsumer.configFile = xmldoc("energyConsumptionParameters.xml")

#general features
**.sigma = 0
**.constraintAreaMinX = 0m
**.constraintAreaMinY = 0m
**.constraintAreaMinZ = 0m
**.constraintAreaMaxX = 480m
**.constraintAreaMaxY = 480m
**.constraintAreaMaxZ = 0m

LoRaNetworkTest.**.radio.separateTransmissionParts = false
LoRaNetworkTest.**.radio.separateReceptionParts = false

**.delayer.config = xmldoc("cloudDelays.xml")
**.radio.radioMediumModule = "LoRaMedium"
**.LoRaMedium.pathLossType = "LoRaLogNormalShadowing"
**.minInterferenceTime = 0s
**.displayAddresses = false
